# generated using pymatgen
data_SiO2
_symmetry_space_group_name_H-M   'P 1'
_cell_length_a   13.54104018
_cell_length_b   19.99454506
_cell_length_c   20.37203939
_cell_angle_alpha   89.99418736
_cell_angle_beta   90.01984499
_cell_angle_gamma   89.99882125
_symmetry_Int_Tables_number   1
_chemical_formula_structural   SiO2
_chemical_formula_sum   'Si96 O192'
_cell_volume   5515.66692604
_cell_formula_units_Z   96
loop_
 _symmetry_equiv_pos_site_id
 _symmetry_equiv_pos_as_xyz
  1  'x, y, z'
loop_
 _atom_site_type_symbol
 _atom_site_label
 _atom_site_symmetry_multiplicity
 _atom_site_fract_x
 _atom_site_fract_y
 _atom_site_fract_z
 _atom_site_occupancy
  Si  Si1  1  0.67080924  0.05872924  0.57471711  1.0
  Si  Si2  1  0.17059000  0.55866583  0.92423379  1.0
  Si  Si3  1  0.66992798  0.44151306  0.57485714  1.0
  Si  Si4  1  0.17148270  0.94113257  0.92438612  1.0
  Si  Si5  1  0.32919076  0.94127076  0.42528289  1.0
  Si  Si6  1  0.82941000  0.44133417  0.07576621  1.0
  Si  Si7  1  0.33007202  0.55848694  0.42514285  1.0
  Si  Si8  1  0.82851730  0.05886743  0.07561387  1.0
  Si  Si9  1  0.81875261  0.03004105  0.68754333  1.0
  Si  Si10  1  0.31855029  0.53042565  0.81200314  1.0
  Si  Si11  1  0.81778487  0.46995691  0.68783783  1.0
  Si  Si12  1  0.31951765  0.96968447  0.81228986  1.0
  Si  Si13  1  0.18124739  0.96995895  0.31245666  1.0
  Si  Si14  1  0.68144971  0.46957435  0.18799686  1.0
  Si  Si15  1  0.18221513  0.53004309  0.31216216  1.0
  Si  Si16  1  0.68048235  0.03031553  0.18771014  1.0
  Si  Si17  1  0.03808952  0.05606619  0.72125880  1.0
  Si  Si18  1  0.53871056  0.55576912  0.77909370  1.0
  Si  Si19  1  0.03720945  0.44367479  0.72123832  1.0
  Si  Si20  1  0.53958705  0.94456875  0.77911469  1.0
  Si  Si21  1  0.96191048  0.94393381  0.27874120  1.0
  Si  Si22  1  0.46128944  0.44423088  0.22090629  1.0
  Si  Si23  1  0.96279055  0.55632521  0.27876167  1.0
  Si  Si24  1  0.46041295  0.05543125  0.22088531  1.0
  Si  Si25  1  0.03260618  0.06425297  0.87731294  1.0
  Si  Si26  1  0.53178201  0.56409159  0.62273925  1.0
  Si  Si27  1  0.03197764  0.43534886  0.87738662  1.0
  Si  Si28  1  0.53245372  0.93629597  0.62283875  1.0
  Si  Si29  1  0.96739382  0.93574703  0.12268706  1.0
  Si  Si30  1  0.46821799  0.43590841  0.37726075  1.0
  Si  Si31  1  0.96802236  0.56465114  0.12261337  1.0
  Si  Si32  1  0.46754628  0.06370403  0.37716124  1.0
  Si  Si33  1  0.82003980  0.03229576  0.92756292  1.0
  Si  Si34  1  0.31874164  0.53186546  0.57294148  1.0
  Si  Si35  1  0.81956666  0.46786796  0.92780576  1.0
  Si  Si36  1  0.31923404  0.96800104  0.57320135  1.0
  Si  Si37  1  0.17996020  0.96770424  0.07243708  1.0
  Si  Si38  1  0.68125836  0.46813454  0.42705851  1.0
  Si  Si39  1  0.18043334  0.53213204  0.07219423  1.0
  Si  Si40  1  0.68076596  0.03199896  0.42679865  1.0
  Si  Si41  1  0.68892489  0.06704554  0.80870583  1.0
  Si  Si42  1  0.18719135  0.56623437  0.69157654  1.0
  Si  Si43  1  0.68798249  0.43338595  0.80915443  1.0
  Si  Si44  1  0.18811173  0.93341870  0.69204365  1.0
  Si  Si45  1  0.31107511  0.93295446  0.19129417  1.0
  Si  Si46  1  0.81280865  0.43376563  0.30842345  1.0
  Si  Si47  1  0.31201751  0.56661405  0.19084556  1.0
  Si  Si48  1  0.81188827  0.06658130  0.30795634  1.0
  Si  Si49  1  0.68202219  0.82841199  0.57619509  1.0
  Si  Si50  1  0.18245272  0.32812593  0.92404478  1.0
  Si  Si51  1  0.68151668  0.67192617  0.57633631  1.0
  Si  Si52  1  0.18294730  0.17155456  0.92416968  1.0
  Si  Si53  1  0.31797781  0.17158801  0.42380491  1.0
  Si  Si54  1  0.81754728  0.67187407  0.07595522  1.0
  Si  Si55  1  0.31848332  0.32807383  0.42366369  1.0
  Si  Si56  1  0.81705270  0.82844544  0.07583031  1.0
  Si  Si57  1  0.81831228  0.87084724  0.69121690  1.0
  Si  Si58  1  0.31771116  0.37111433  0.80851713  1.0
  Si  Si59  1  0.81770005  0.62920223  0.69146233  1.0
  Si  Si60  1  0.31835309  0.12894718  0.80872702  1.0
  Si  Si61  1  0.18168772  0.12915276  0.30878310  1.0
  Si  Si62  1  0.68228884  0.62888567  0.19148287  1.0
  Si  Si63  1  0.18229995  0.37079777  0.30853766  1.0
  Si  Si64  1  0.68164691  0.87105282  0.19127298  1.0
  Si  Si65  1  0.03175194  0.83020687  0.73069956  1.0
  Si  Si66  1  0.53159598  0.33036742  0.76930154  1.0
  Si  Si67  1  0.03143582  0.66970428  0.73059192  1.0
  Si  Si68  1  0.53197555  0.16979980  0.76922071  1.0
  Si  Si69  1  0.96824806  0.16979313  0.26930044  1.0
  Si  Si70  1  0.46840402  0.66963258  0.23069846  1.0
  Si  Si71  1  0.96856418  0.33029572  0.26940808  1.0
  Si  Si72  1  0.46802445  0.83020020  0.23077929  1.0
  Si  Si73  1  0.02800974  0.82746901  0.88409739  1.0
  Si  Si74  1  0.52780533  0.32747402  0.61605269  1.0
  Si  Si75  1  0.02727741  0.67245483  0.88397586  1.0
  Si  Si76  1  0.52847213  0.17262236  0.61595844  1.0
  Si  Si77  1  0.97199026  0.17253099  0.11590261  1.0
  Si  Si78  1  0.47219467  0.67252598  0.38394731  1.0
  Si  Si79  1  0.97272259  0.32754517  0.11602414  1.0
  Si  Si80  1  0.47152787  0.82737764  0.38404155  1.0
  Si  Si81  1  0.81554615  0.87363610  0.93008199  1.0
  Si  Si82  1  0.31547133  0.37308435  0.56970709  1.0
  Si  Si83  1  0.81488067  0.62655393  0.93018684  1.0
  Si  Si84  1  0.31602225  0.12677211  0.56985569  1.0
  Si  Si85  1  0.18445385  0.12636390  0.06991801  1.0
  Si  Si86  1  0.68452867  0.62691565  0.43029291  1.0
  Si  Si87  1  0.18511933  0.37344607  0.06981316  1.0
  Si  Si88  1  0.68397775  0.87322789  0.43014431  1.0
  Si  Si89  1  0.68375681  0.82704767  0.81218997  1.0
  Si  Si90  1  0.18285117  0.32722010  0.68728340  1.0
  Si  Si91  1  0.68306770  0.67293077  0.81241604  1.0
  Si  Si92  1  0.18349183  0.17289341  0.68754673  1.0
  Si  Si93  1  0.31624319  0.17295233  0.18781003  1.0
  Si  Si94  1  0.81714883  0.67277990  0.31271659  1.0
  Si  Si95  1  0.31693230  0.32706923  0.18758395  1.0
  Si  Si96  1  0.81650817  0.82710659  0.31245326  1.0
  O  O1  1  0.71469988  0.04696833  0.50169312  1.0
  O  O2  1  0.21456663  0.54620303  0.99718381  1.0
  O  O3  1  0.71475691  0.45310731  0.50204989  1.0
  O  O4  1  0.21453561  0.95369882  0.99755028  1.0
  O  O5  1  0.28530012  0.95303167  0.49830687  1.0
  O  O6  1  0.78543337  0.45379697  0.00281618  1.0
  O  O7  1  0.28524309  0.54689269  0.49795011  1.0
  O  O8  1  0.78546439  0.04630118  0.00244971  1.0
  O  O9  1  0.76450809  0.06293962  0.62422786  1.0
  O  O10  1  0.26418022  0.56431940  0.87476139  1.0
  O  O11  1  0.76293805  0.43676383  0.62490494  1.0
  O  O12  1  0.26578658  0.93615616  0.87546544  1.0
  O  O13  1  0.23549191  0.93706038  0.37577214  1.0
  O  O14  1  0.73581978  0.43568060  0.12523861  1.0
  O  O15  1  0.23706195  0.56323617  0.37509506  1.0
  O  O16  1  0.73421342  0.06384384  0.12453456  1.0
  O  O17  1  0.60994441  0.12876921  0.57661293  1.0
  O  O18  1  0.10830233  0.62816067  0.92332757  1.0
  O  O19  1  0.60829093  0.37176921  0.57629315  1.0
  O  O20  1  0.11017230  0.87125529  0.92293225  1.0
  O  O21  1  0.39005559  0.87123079  0.42338707  1.0
  O  O22  1  0.89169767  0.37183933  0.07667242  1.0
  O  O23  1  0.39170907  0.62823079  0.42370685  1.0
  O  O24  1  0.88982770  0.12874471  0.07706774  1.0
  O  O25  1  0.59621006  0.99735878  0.59194392  1.0
  O  O26  1  0.09774972  0.49689558  0.90528406  1.0
  O  O27  1  0.59575731  0.50325294  0.59160583  1.0
  O  O28  1  0.09806751  0.00247418  0.90505436  1.0
  O  O29  1  0.40378994  0.00264122  0.40805608  1.0
  O  O30  1  0.90225028  0.50310442  0.09471594  1.0
  O  O31  1  0.40424269  0.49674706  0.40839416  1.0
  O  O32  1  0.90193249  0.99752582  0.09494564  1.0
  O  O33  1  0.93613442  0.04457087  0.68082816  1.0
  O  O34  1  0.43581897  0.54524755  0.81856675  1.0
  O  O35  1  0.93504693  0.45509603  0.68102224  1.0
  O  O36  1  0.43689927  0.95521529  0.81879159  1.0
  O  O37  1  0.06386558  0.95542913  0.31917184  1.0
  O  O38  1  0.56418103  0.45475245  0.18143325  1.0
  O  O39  1  0.06495307  0.54490397  0.31897775  1.0
  O  O40  1  0.56310073  0.04478471  0.18120841  1.0
  O  O41  1  0.79207143  0.95035060  0.68934527  1.0
  O  O42  1  0.29227431  0.45068445  0.81132813  1.0
  O  O43  1  0.79158058  0.54971180  0.68906841  1.0
  O  O44  1  0.29274211  0.04936523  0.81094712  1.0
  O  O45  1  0.20792857  0.04964940  0.31065472  1.0
  O  O46  1  0.70772569  0.54931555  0.18867186  1.0
  O  O47  1  0.20841942  0.45028820  0.31093159  1.0
  O  O48  1  0.70725789  0.95063477  0.18905287  1.0
  O  O49  1  0.77779810  0.06417586  0.75480889  1.0
  O  O50  1  0.27797982  0.56358552  0.74411106  1.0
  O  O51  1  0.77709283  0.43637800  0.75543789  1.0
  O  O52  1  0.27864956  0.93590680  0.74477618  1.0
  O  O53  1  0.22220190  0.93582414  0.24519111  1.0
  O  O54  1  0.72202018  0.43641448  0.25588893  1.0
  O  O55  1  0.22290717  0.56362200  0.24456211  1.0
  O  O56  1  0.72135044  0.06409320  0.25522381  1.0
  O  O57  1  0.08571939  0.12747811  0.70047887  1.0
  O  O58  1  0.58520109  0.62796168  0.79831431  1.0
  O  O59  1  0.08475988  0.37226737  0.70038739  1.0
  O  O60  1  0.58619779  0.87243140  0.79843227  1.0
  O  O61  1  0.91428061  0.87252189  0.29952113  1.0
  O  O62  1  0.41479891  0.37203832  0.20168569  1.0
  O  O63  1  0.91524012  0.62773263  0.29961261  1.0
  O  O64  1  0.41380221  0.12756860  0.20156773  1.0
  O  O65  1  0.01432673  0.05381122  0.79936178  1.0
  O  O66  1  0.51817447  0.55074500  0.70070781  1.0
  O  O67  1  0.01406976  0.44591589  0.79941632  1.0
  O  O68  1  0.51836907  0.94941492  0.70079966  1.0
  O  O69  1  0.98567327  0.94618878  0.20063821  1.0
  O  O70  1  0.48182553  0.44925500  0.29929219  1.0
  O  O71  1  0.98593024  0.55408411  0.20058368  1.0
  O  O72  1  0.48163093  0.05058508  0.29920034  1.0
  O  O73  1  0.11383669  0.99599027  0.70323661  1.0
  O  O74  1  0.61409762  0.49658985  0.80044256  1.0
  O  O75  1  0.11271220  0.50381986  0.70299514  1.0
  O  O76  1  0.61517747  0.00375113  0.80010742  1.0
  O  O77  1  0.88616331  0.00400973  0.29676338  1.0
  O  O78  1  0.38590238  0.50341015  0.19955744  1.0
  O  O79  1  0.88728780  0.49618014  0.29700486  1.0
  O  O80  1  0.38482253  0.99624887  0.19989257  1.0
  O  O81  1  0.08664412  0.13534395  0.89151210  1.0
  O  O82  1  0.58528541  0.63548968  0.60892399  1.0
  O  O83  1  0.08570010  0.36416586  0.89177442  1.0
  O  O84  1  0.58622720  0.86498928  0.60915341  1.0
  O  O85  1  0.91335588  0.86465605  0.10848789  1.0
  O  O86  1  0.41471459  0.36451032  0.39107601  1.0
  O  O87  1  0.91429990  0.63583414  0.10822558  1.0
  O  O88  1  0.41377280  0.13501072  0.39084658  1.0
  O  O89  1  0.92766825  0.06615218  0.91544255  1.0
  O  O90  1  0.42467917  0.56721743  0.58739491  1.0
  O  O91  1  0.92683099  0.43365435  0.91525818  1.0
  O  O92  1  0.42558484  0.93302679  0.58718257  1.0
  O  O93  1  0.07233175  0.93384782  0.08455745  1.0
  O  O94  1  0.57532083  0.43278257  0.41260508  1.0
  O  O95  1  0.07316901  0.56634565  0.08474181  1.0
  O  O96  1  0.57441516  0.06697321  0.41281743  1.0
  O  O97  1  0.73614579  0.06606446  0.88163502  1.0
  O  O98  1  0.23192188  0.56331237  0.61803815  1.0
  O  O99  1  0.73499926  0.43449529  0.88214429  1.0
  O  O100  1  0.23310617  0.93611060  0.61857576  1.0
  O  O101  1  0.26385421  0.93393554  0.11836498  1.0
  O  O102  1  0.76807812  0.43668763  0.38196185  1.0
  O  O103  1  0.26500074  0.56550471  0.11785571  1.0
  O  O104  1  0.76689383  0.06388940  0.38142424  1.0
  O  O105  1  0.82846427  0.95237130  0.91146359  1.0
  O  O106  1  0.32971095  0.45182764  0.58784594  1.0
  O  O107  1  0.82859924  0.54780630  0.91185954  1.0
  O  O108  1  0.32955967  0.04803532  0.58824652  1.0
  O  O109  1  0.17153573  0.04762870  0.08853640  1.0
  O  O110  1  0.67028905  0.54817236  0.41215405  1.0
  O  O111  1  0.17140076  0.45219370  0.08814046  1.0
  O  O112  1  0.67044033  0.95196468  0.41175347  1.0
  O  O113  1  0.63046905  0.13742074  0.80100359  1.0
  O  O114  1  0.12988831  0.63708341  0.69897247  1.0
  O  O115  1  0.62973288  0.36294465  0.80137053  1.0
  O  O116  1  0.13054399  0.86266693  0.69940030  1.0
  O  O117  1  0.36953095  0.86257926  0.19899640  1.0
  O  O118  1  0.87011169  0.36291659  0.30102753  1.0
  O  O119  1  0.37026712  0.63705535  0.19862947  1.0
  O  O120  1  0.86945601  0.13733307  0.30059970  1.0
  O  O121  1  0.71419434  0.86328345  0.50687654  1.0
  O  O122  1  0.21508279  0.36335477  0.99310789  1.0
  O  O123  1  0.71413789  0.63702060  0.50712255  1.0
  O  O124  1  0.21513979  0.13632822  0.99332877  1.0
  O  O125  1  0.28580566  0.13671655  0.49312346  1.0
  O  O126  1  0.78491721  0.63664523  0.00689210  1.0
  O  O127  1  0.28586211  0.36297940  0.49287745  1.0
  O  O128  1  0.78486021  0.86367178  0.00667123  1.0
  O  O129  1  0.77608020  0.83465805  0.62568746  1.0
  O  O130  1  0.27553704  0.33452232  0.87382499  1.0
  O  O131  1  0.77510434  0.66570636  0.62621235  1.0
  O  O132  1  0.27650778  0.16517472  0.87432655  1.0
  O  O133  1  0.22391980  0.16534195  0.37431254  1.0
  O  O134  1  0.72446296  0.66547768  0.12617501  1.0
  O  O135  1  0.22489566  0.33429364  0.37378765  1.0
  O  O136  1  0.72349222  0.83482528  0.12567345  1.0
  O  O137  1  0.65313206  0.75019954  0.56523817  1.0
  O  O138  1  0.15474882  0.24980481  0.93546526  1.0
  O  O139  1  0.34686794  0.24980046  0.43476182  1.0
  O  O140  1  0.84525118  0.75019519  0.06453474  1.0
  O  O141  1  0.93655055  0.85887550  0.69126986  1.0
  O  O142  1  0.43579881  0.35869228  0.80820910  1.0
  O  O143  1  0.93589937  0.64130119  0.69135046  1.0
  O  O144  1  0.43649336  0.14121622  0.80831728  1.0
  O  O145  1  0.06344945  0.14112450  0.30873013  1.0
  O  O146  1  0.56420119  0.64130772  0.19179089  1.0
  O  O147  1  0.06410063  0.35869881  0.30864954  1.0
  O  O148  1  0.56350664  0.85878378  0.19168272  1.0
  O  O149  1  0.77066807  0.83920493  0.75777739  1.0
  O  O150  1  0.26941532  0.34037568  0.74175983  1.0
  O  O151  1  0.77034634  0.66033798  0.75833559  1.0
  O  O152  1  0.26984128  0.16024476  0.74227774  1.0
  O  O153  1  0.22933193  0.16079507  0.24222261  1.0
  O  O154  1  0.73058468  0.65962432  0.25824016  1.0
  O  O155  1  0.22965366  0.33966202  0.24166441  1.0
  O  O156  1  0.73015872  0.83975524  0.25772225  1.0
  O  O157  1  0.03984299  0.74995396  0.72186373  1.0
  O  O158  1  0.53982760  0.25008572  0.77780844  1.0
  O  O159  1  0.96015701  0.25004604  0.27813627  1.0
  O  O160  1  0.46017240  0.74991428  0.22219156  1.0
  O  O161  1  0.02135433  0.85233293  0.80774773  1.0
  O  O162  1  0.52227653  0.35282281  0.69228101  1.0
  O  O163  1  0.02145529  0.64748503  0.80763831  1.0
  O  O164  1  0.52231138  0.14738428  0.69220758  1.0
  O  O165  1  0.97864567  0.14766707  0.19225226  1.0
  O  O166  1  0.47772347  0.64717719  0.30771899  1.0
  O  O167  1  0.97854471  0.35251497  0.19236169  1.0
  O  O168  1  0.47768862  0.85261572  0.30779241  1.0
  O  O169  1  0.06263840  0.74987910  0.88878422  1.0
  O  O170  1  0.56364410  0.25011920  0.61159184  1.0
  O  O171  1  0.93736160  0.25012090  0.11121577  1.0
  O  O172  1  0.43635590  0.74988080  0.38840816  1.0
  O  O173  1  0.91991036  0.83529878  0.91784076  1.0
  O  O174  1  0.41890173  0.33399175  0.58314362  1.0
  O  O175  1  0.91860961  0.66540275  0.91708562  1.0
  O  O176  1  0.42001720  0.16541957  0.58254366  1.0
  O  O177  1  0.08008964  0.16470122  0.08215923  1.0
  O  O178  1  0.58109827  0.66600825  0.41685638  1.0
  O  O179  1  0.08139039  0.33459725  0.08291438  1.0
  O  O180  1  0.57998280  0.83458043  0.41745634  1.0
  O  O181  1  0.72838797  0.84196997  0.88494143  1.0
  O  O182  1  0.22727007  0.34221582  0.61447267  1.0
  O  O183  1  0.72689019  0.65763393  0.88533394  1.0
  O  O184  1  0.22852562  0.15814149  0.61486671  1.0
  O  O185  1  0.27161203  0.15803003  0.11505856  1.0
  O  O186  1  0.77272993  0.65778418  0.38552732  1.0
  O  O187  1  0.27310981  0.34236607  0.11466605  1.0
  O  O188  1  0.77147438  0.84185851  0.38513328  1.0
  O  O189  1  0.64700086  0.75005954  0.80850202  1.0
  O  O190  1  0.14717462  0.24999312  0.69151649  1.0
  O  O191  1  0.35299914  0.24994046  0.19149798  1.0
  O  O192  1  0.85282538  0.75000688  0.30848351  1.0
