data_N6_crystal
_chemical_name_common                  'Nitrogen hexamer'
_chemical_formula_structural           N6
_chemical_formula_sum                  'N6'
_cell_length_a                         5.74
_cell_length_b                         3.29
_cell_length_c                         8.33
_cell_angle_alpha                      90.0
_cell_angle_beta                       114.7
_cell_angle_gamma                      90.0
_cell_volume                           143.37
_space_group_crystal_system            monoclinic
_space_group_IT_number                 12
_space_group_name_H-M_alt              'C 2/m'
_space_group_name_Hall                 '-C 2y'

loop_
_space_group_symop_operation_xyz
'x, y, z'
'-x, y, -z'
'-x, -y, -z'
'x, -y, z'
'x+1/2, y+1/2, z'
'-x+1/2, y+1/2, -z'
'-x+1/2, -y+1/2, -z'
'x+1/2, -y+1/2, z'

loop_
_atom_site_label
_atom_site_type_symbol
_atom_site_fract_x
_atom_site_fract_y
_atom_site_fract_z
_atom_site_occupancy
N1 N 0.0802 0.0000 0.3523 1.0
N2 N 0.1147 0.0000 0.0784 1.0
N3 N 0.0716 0.0000 0.2128 1.0
