data_image0
_chemical_formula_structural       Si12O24
_chemical_formula_sum              "Si12 O24"
_cell_length_a       8.965
_cell_length_b       8.965
_cell_length_c       8.965
_cell_angle_alpha    90.0
_cell_angle_beta     90.0
_cell_angle_gamma    90.0

_space_group_name_H-M_alt    "P 1"
_space_group_IT_number       1

loop_
  _space_group_symop_operation_xyz
  'x, y, z'

loop_
  _atom_site_type_symbol
  _atom_site_label
  _atom_site_symmetry_multiplicity
  _atom_site_fract_x
  _atom_site_fract_y
  _atom_site_fract_z
  _atom_site_occupancy
  Si  Si1       1.0  0.25  0.5  0.0  1.0000
  Si  Si2       1.0  0.75  0.0  0.5  1.0000
  Si  Si3       1.0  0.0  0.25  0.5  1.0000
  Si  Si4       1.0  0.5  0.75  0.0  1.0000
  Si  Si5       1.0  0.5  0.0  0.25  1.0000
  Si  Si6       1.0  0.0  0.5  0.75  1.0000
  Si  Si7       1.0  0.5  0.0  0.75  1.0000
  Si  Si8       1.0  0.0  0.5  0.25  1.0000
  Si  Si9       1.0  0.75  0.5  0.0  1.0000
  Si  Si10      1.0  0.25  0.0  0.5  1.0000
  Si  Si11      1.0  0.5  0.25  0.0  1.0000
  Si  Si12      1.0  0.0  0.75  0.5  1.0000
  O   O1        1.0  0.1467  0.5  0.8533  1.0000
  O   O2        1.0  0.6467000000000003  0.0  0.3533  1.0000
  O   O3        1.0  0.8533  0.1467  0.5  1.0000
  O   O4        1.0  0.3533  0.6467000000000003  0.0  1.0000
  O   O5        1.0  0.5  0.8533  0.1467  1.0000
  O   O6        1.0  0.0  0.3533  0.6467000000000003  1.0000
  O   O7        1.0  0.1467  0.5  0.1467  1.0000
  O   O8        1.0  0.6467000000000003  0.0  0.6467000000000003  1.0000
  O   O9        1.0  0.5  0.8533  0.8533  1.0000
  O   O10       1.0  0.0  0.3533  0.3533  1.0000
  O   O11       1.0  0.8533  0.5  0.8533  1.0000
  O   O12       1.0  0.3533  0.0  0.3533  1.0000
  O   O13       1.0  0.1467  0.1467  0.5  1.0000
  O   O14       1.0  0.6467000000000003  0.6467000000000003  0.0  1.0000
  O   O15       1.0  0.8533  0.5  0.1467  1.0000
  O   O16       1.0  0.3533  0.0  0.6467000000000003  1.0000
  O   O17       1.0  0.5  0.1467  0.8533  1.0000
  O   O18       1.0  0.0  0.6467000000000003  0.3533  1.0000
  O   O19       1.0  0.1467  0.8533  0.5  1.0000
  O   O20       1.0  0.6467000000000003  0.3533  0.0  1.0000
  O   O21       1.0  0.5  0.1467  0.1467  1.0000
  O   O22       1.0  0.0  0.6467000000000003  0.6467000000000003  1.0000
  O   O23       1.0  0.8533  0.8533  0.5  1.0000
  O   O24       1.0  0.3533  0.3533  0.0  1.0000
